<?xml version="1.0" encoding="UTF-8"?>

<!-- generated on 2025-10-28 00:45:21.694199 by randomTrips.py UNKNOWN
<configuration>
    <net-file value="kr.net.xml"/>
    <route-file value="routes.rou.xml"/>
    <end value="100.0"/>
</configuration>
-->

<routes xmlns:xsi="http://www.w3.org/2001/XMLSchema-instance" xsi:noNamespaceSchemaLocation="http://sumo.dlr.de/xsd/routes_file.xsd">
    <trip id="0" depart="0.00" from="27934861#3" to="-1185209422#2"/>
    <trip id="1" depart="1.00" from="-40696207" to="-380707240"/>
    <trip id="2" depart="2.00" from="290639912#3" to="27935002#0"/>
    <trip id="3" depart="3.00" from="491889865#3" to="-256258847"/>
    <trip id="4" depart="4.00" from="1110164238#0" to="-1185467340"/>
    <trip id="5" depart="5.00" from="-322022988#2" to="1326496636"/>
    <trip id="6" depart="6.00" from="-1185209421#2" to="-290639912#4"/>
    <trip id="7" depart="7.00" from="27934960#0" to="160331538#1"/>
    <trip id="8" depart="8.00" from="-322022988#3" to="243553546#0"/>
    <trip id="9" depart="9.00" from="40696199#3" to="-1110221362"/>
    <trip id="10" depart="10.00" from="40696199#1" to="27994446#4"/>
    <trip id="11" depart="11.00" from="-694335187" to="-27994428#0"/>
    <trip id="12" depart="12.00" from="688608667#0" to="-694335189"/>
    <trip id="13" depart="13.00" from="-243553548#1" to="-27934861#2"/>
    <trip id="14" depart="14.00" from="40696220#0" to="243897292"/>
    <trip id="15" depart="15.00" from="40696199#2" to="310665594#1"/>
    <trip id="16" depart="16.00" from="1384907601#1" to="695251944#1"/>
    <trip id="17" depart="17.00" from="-799715253#1" to="160556513#1"/>
    <trip id="18" depart="18.00" from="40696204#1" to="27934861#0"/>
    <trip id="19" depart="19.00" from="40696223#2" to="230423164"/>
    <trip id="20" depart="20.00" from="27994446#2" to="-1427484874#0"/>
    <trip id="21" depart="21.00" from="-322022988#6" to="-59482082#1"/>
    <trip id="22" depart="22.00" from="-164040897#0" to="-40696199#2"/>
    <trip id="23" depart="23.00" from="-256258848" to="-59482012#0"/>
    <trip id="24" depart="24.00" from="27934861#1" to="1090570620#0"/>
    <trip id="25" depart="25.00" from="-775976220" to="-322022988#2"/>
    <trip id="26" depart="26.00" from="-40696205#0" to="678335364#3"/>
    <trip id="27" depart="27.00" from="27934930" to="245809758#2"/>
    <trip id="28" depart="28.00" from="-27994428#1" to="310665594#1"/>
    <trip id="29" depart="29.00" from="-27935002#1" to="1103401541#0"/>
    <trip id="30" depart="30.00" from="799715253#0" to="27934960#0"/>
    <trip id="31" depart="31.00" from="160331539#0" to="27994428#0"/>
    <trip id="32" depart="32.00" from="40696219#0" to="377132617#4"/>
    <trip id="33" depart="33.00" from="-343689124#0" to="-1185468746"/>
    <trip id="34" depart="34.00" from="-656181226#1" to="-40696220#0"/>
    <trip id="35" depart="35.00" from="-310665594#0" to="688608667#1"/>
    <trip id="36" depart="36.00" from="464465165#0" to="-678335364#1"/>
    <trip id="37" depart="37.00" from="27934960#2" to="1109948700#0"/>
    <trip id="38" depart="38.00" from="59482034#1" to="1208112310#1"/>
    <trip id="39" depart="39.00" from="-40696204#1" to="-40696202"/>
    <trip id="40" depart="40.00" from="160556513#0" to="-40696206#1"/>
    <trip id="41" depart="41.00" from="164040897#1" to="59482034#2"/>
    <trip id="42" depart="42.00" from="1101675583" to="-322022988#6"/>
    <trip id="43" depart="43.00" from="886153775#0" to="1351994265#0"/>
    <trip id="44" depart="44.00" from="-243553548#1" to="-1427484874#1"/>
    <trip id="45" depart="45.00" from="-27934861#3" to="27934861#4"/>
    <trip id="46" depart="46.00" from="380707240" to="1167293938"/>
    <trip id="47" depart="47.00" from="-164040895#0" to="1103401541#1"/>
    <trip id="48" depart="48.00" from="886153775#0" to="1421955576"/>
    <trip id="49" depart="49.00" from="694335187" to="464465165#0"/>
    <trip id="50" depart="50.00" from="-1110221362" to="290639912#2"/>
    <trip id="51" depart="51.00" from="27934983#0" to="1427484874#1"/>
    <trip id="52" depart="52.00" from="-40696205#0" to="27934960#1"/>
    <trip id="53" depart="53.00" from="-27934861#4" to="1185209421#2"/>
    <trip id="54" depart="54.00" from="1185209421#2" to="694335189"/>
    <trip id="55" depart="55.00" from="464465165#0" to="-40696206#1"/>
    <trip id="56" depart="56.00" from="1301808819" to="-28103470"/>
    <trip id="57" depart="57.00" from="59482034#0" to="491889864#2"/>
    <trip id="58" depart="58.00" from="-59482112#0" to="27934960#0"/>
    <trip id="59" depart="59.00" from="243553548#0" to="-27935014"/>
    <trip id="60" depart="60.00" from="322022988#6" to="1427485004"/>
    <trip id="61" depart="61.00" from="377124830" to="1421955576"/>
    <trip id="62" depart="62.00" from="-1101675583" to="-688608667#1"/>
    <trip id="63" depart="63.00" from="-1182440755" to="678335364#0"/>
    <trip id="64" depart="64.00" from="491889864#0" to="40696220#0"/>
    <trip id="65" depart="65.00" from="-59482112#4" to="-164040895#3"/>
    <trip id="66" depart="66.00" from="464465165#0" to="692207400#2"/>
    <trip id="67" depart="67.00" from="-243553546#0" to="1303068639#0"/>
    <trip id="68" depart="68.00" from="-164040895#3" to="370328588#2"/>
    <trip id="69" depart="69.00" from="370328586" to="-27934968#4"/>
    <trip id="70" depart="70.00" from="1208112310#0" to="160331539#1"/>
    <trip id="71" depart="71.00" from="-40696204#1" to="491889864#3"/>
    <trip id="72" depart="72.00" from="1110164238#0" to="-322022988#3"/>
    <trip id="73" depart="73.00" from="1384907601#3" to="310665594#1"/>
    <trip id="74" depart="74.00" from="-28120431#1" to="-678335364#0"/>
    <trip id="75" depart="75.00" from="886153774" to="27934968#1"/>
    <trip id="76" depart="76.00" from="1165663724" to="1384907601#1"/>
    <trip id="77" depart="77.00" from="-27934930" to="-40696197"/>
    <trip id="78" depart="78.00" from="-692909359#1" to="243553545#3"/>
    <trip id="79" depart="79.00" from="-343689124#0" to="-343689124#0"/>
    <trip id="80" depart="80.00" from="-164040895#4" to="27934861#5"/>
    <trip id="81" depart="81.00" from="-343689124#0" to="59482112#0"/>
    <trip id="82" depart="82.00" from="40696223#1" to="-164040897#1"/>
    <trip id="83" depart="83.00" from="-40696199#0" to="27934983#0"/>
    <trip id="84" depart="84.00" from="-310665594#1" to="-27934968#6"/>
    <trip id="85" depart="85.00" from="59482112#4" to="164040897#0"/>
    <trip id="86" depart="86.00" from="1208112303" to="40696197"/>
    <trip id="87" depart="87.00" from="40696199#2" to="-290639912#0"/>
    <trip id="88" depart="88.00" from="-243553548#3" to="1185209421#0"/>
    <trip id="89" depart="89.00" from="1110164238#1" to="1280500777"/>
    <trip id="90" depart="90.00" from="28120431#1" to="27934989"/>
    <trip id="91" depart="91.00" from="695251944#1" to="-27934861#3"/>
    <trip id="92" depart="92.00" from="1103401541#0" to="-694563680#0"/>
    <trip id="93" depart="93.00" from="40696223#2" to="-40696203#0"/>
    <trip id="94" depart="94.00" from="-27994464#2" to="1185467340"/>
    <trip id="95" depart="95.00" from="1110164238#0" to="-59482012#0"/>
    <trip id="96" depart="96.00" from="-40696199#5" to="654233027"/>
    <trip id="97" depart="97.00" from="1167293939" to="464465165#0"/>
    <trip id="98" depart="98.00" from="160330784" to="-1427485004"/>
    <trip id="99" depart="99.00" from="886153775#1" to="40696221"/>
</routes>
