<?xml version="1.0" encoding="UTF-8"?>

<!-- generated on 2025-10-28 00:44:52 by Eclipse SUMO netconvert Version 1.18.0
<configuration xmlns:xsi="http://www.w3.org/2001/XMLSchema-instance" xsi:noNamespaceSchemaLocation="http://sumo.dlr.de/xsd/netconvertConfiguration.xsd">

    <input>
        <osm-files value="kr.osm"/>
    </input>

    <output>
        <output-file value="kr.net.xml"/>
    </output>

    <projection>
        <proj.utm value="true"/>
    </projection>

</configuration>
-->

<net version="1.16" junctionCornerDetail="5" limitTurnSpeed="5.50" xmlns:xsi="http://www.w3.org/2001/XMLSchema-instance" xsi:noNamespaceSchemaLocation="http://sumo.dlr.de/xsd/net_file.xsd">

    <location netOffset="-779956.91,-1418649.69" convBoundary="0.00,0.00,11911.70,11620.55" origBoundary="77.580048,12.819088,77.688657,12.924454" projParameter="+proj=utm +zone=43 +ellps=WGS84 +datum=WGS84 +units=m +no_defs"/>

    <type id="highway.footway" priority="1" numLanes="1" speed="2.78" allow="pedestrian" oneway="1" width="2.00"/>
    <type id="highway.living_street" priority="2" numLanes="1" speed="2.78" disallow="tram rail_urban rail rail_electric rail_fast ship" oneway="0"/>
    <type id="highway.path" priority="1" numLanes="1" speed="5.56" allow="pedestrian bicycle" oneway="0" width="2.00"/>
    <type id="highway.primary" priority="12" numLanes="2" speed="27.78" disallow="tram rail_urban rail rail_electric rail_fast ship" oneway="0"/>
    <type id="highway.primary_link" priority="7" numLanes="1" speed="22.22" disallow="tram rail_urban rail rail_electric rail_fast ship" oneway="0"/>
    <type id="highway.residential" priority="3" numLanes="1" speed="13.89" disallow="tram rail_urban rail rail_electric rail_fast ship" oneway="0"/>
    <type id="highway.service" priority="1" numLanes="1" speed="5.56" allow="pedestrian delivery bicycle" oneway="0"/>
    <type id="highway.steps" priority="1" numLanes="1" speed="1.39" allow="pedestrian" oneway="1" width="2.00"/>
    <type id="highway.tertiary" priority="10" numLanes="1" speed="22.22" disallow="tram rail_urban rail rail_electric rail_fast ship" oneway="0"/>
    <type id="highway.track" priority="1" numLanes="1" speed="5.56" allow="pedestrian motorcycle moped bicycle" oneway="0"/>
    <type id="highway.trunk" priority="13" numLanes="2" speed="27.78" disallow="pedestrian bicycle tram rail_urban rail rail_electric rail_fast ship" oneway="0"/>
    <type id="highway.trunk_link" priority="8" numLanes="1" speed="22.22" disallow="pedestrian bicycle tram rail_urban rail rail_electric rail_fast ship" oneway="0"/>
    <type id="railway.subway" priority="18" numLanes="1" speed="27.78" allow="rail_urban" oneway="1"/>

    <edge id=":10081538826_0" function="internal">
        <lane id=":10081538826_0_0" index="0" disallow="tram rail_urban rail rail_electric rail_fast ship" speed="13.89" length="9.50" shape="4526.96,10530.86 4526.27,10540.33"/>
    </edge>
    <edge id=":10081538826_1" function="internal">
        <lane id=":10081538826_1_0" index="0" allow="pedestrian delivery bicycle" speed="6.74" length="3.44" shape="4526.96,10530.86 4526.30,10533.89 4526.09,10534.16"/>
    </edge>
    <edge id=":10081538826_7" function="internal">
        <lane id=":10081538826_7_0" index="0" allow="pedestrian delivery bicycle" speed="6.74" length="7.59" shape="4526.09,10534.16 4524.83,10535.81 4522.55,10536.62 4519.46,10536.32"/>
    </edge>
    <edge id=":10081538826_2" function="internal">
        <lane id=":10081538826_2_0" index="0" allow="pedestrian delivery bicycle" speed="4.88" length="5.21" shape="4520.22,10533.21 4521.68,10533.35 4522.76,10532.97 4523.45,10532.06 4523.76,10530.63"/>
    </edge>
    <edge id=":10081538826_3" function="internal">
        <lane id=":10081538826_3_0" index="0" allow="pedestrian delivery bicycle" speed="7.35" length="10.29" shape="4520.22,10533.21 4523.02,10534.25 4524.96,10535.78 4526.05,10537.81 4526.27,10540.33"/>
    </edge>
    <edge id=":10081538826_4" function="internal">
        <lane id=":10081538826_4_0" index="0" allow="pedestrian delivery bicycle" speed="3.65" length="4.67" shape="4520.22,10533.21 4521.20,10534.27 4521.40,10535.15 4520.82,10535.83 4519.46,10536.32"/>
    </edge>
    <edge id=":10081538826_5" function="internal">
        <lane id=":10081538826_5_0" index="0" allow="pedestrian delivery bicycle" speed="5.66" length="5.74" shape="4523.08,10540.10 4522.93,10538.80 4522.28,10537.73 4521.12,10536.91 4519.46,10536.32"/>
    </edge>
    <edge id=":10081538826_6" function="internal">
        <lane id=":10081538826_6_0" index="0" disallow="tram rail_urban rail rail_electric rail_fast ship" speed="13.89" length="9.49" shape="4523.08,10540.10 4523.76,10530.63"/>
    </edge>
    <edge id=":10081538827_0" function="internal">
        <lane id=":10081538827_0_0" index="0" disallow="pedestrian bicycle tram rail_urban rail rail_electric rail_fast ship" speed="13.89" length="6.14" shape="4511.45,10739.19 4505.63,10737.25"/>
    </edge>
    <edge id=":10081538827_1" function="internal">
        <lane id=":10081538827_1_0" index="0" allow="delivery" speed="5.02" length="5.03" shape="4511.45,10739.19 4510.23,10738.55 4509.51,10737.67 4509.31,10736.56 4509.61,10735.21"/>
    </edge>
    <edge id=":10081538833_0" function="internal">
        <lane id=":10081538833_0_0" index="0" allow="pedestrian delivery bicycle" speed="3.65" length="4.67" shape="4516.48,10721.76 4515.29,10722.57 4514.40,10722.65 4513.81,10721.98 4513.51,10720.57"/>
    </edge>
    <edge id=":10081538833_1" function="internal">
        <lane id=":10081538833_1_0" index="0" allow="pedestrian delivery bicycle" speed="5.56" length="3.52" shape="4513.91,10723.94 4514.01,10722.97 4513.70,10722.25 4513.39,10721.54 4513.51,10720.57"/>
    </edge>
    <edge id=":10081671361_0" function="internal">
        <lane id=":10081671361_0_0" index="0" allow="pedestrian motorcycle moped bicycle" speed="3.91" length="2.44" shape="4813.78,10673.95 4813.12,10673.85 4812.58,10673.97 4812.15,10674.32 4811.82,10674.90"/>
    </edge>
    <edge id=":10081671361_1" function="internal">
        <lane id=":10081671361_1_0" index="0" disallow="tram rail_urban rail rail_electric rail_fast ship" speed="3.65" length="4.67" shape="4813.78,10673.95 4812.86,10672.84 4812.71,10671.95 4813.33,10671.30 4814.71,10670.89"/>
    </edge>
    <edge id=":10081671361_2" function="internal">
        <lane id=":10081671361_2_0" index="0" allow="pedestrian motorcycle moped bicycle" speed="6.09" length="7.32" shape="4808.84,10673.73 4809.81,10672.00 4811.12,10670.95 4812.75,10670.58 4814.71,10670.89"/>
    </edge>
    <edge id=":10081671362_0" function="internal">
        <lane id=":10081671362_0_0" index="0" disallow="tram rail_urban rail rail_electric rail_fast ship" speed="13.89" length="14.64" shape="4873.03,10684.30 4865.18,10696.66"/>
    </edge>
    <edge id=":10081671362_1" function="internal">
        <lane id=":10081671362_1_0" index="0" disallow="tram rail_urban rail rail_electric rail_fast ship" speed="9.09" length="3.71" shape="4873.03,10684.30 4870.67,10686.95 4870.53,10687.03"/>
    </edge>
    <edge id=":10081671362_2" function="internal">
        <lane id=":10081671362_2_0" index="0" disallow="tram rail_urban rail rail_electric rail_fast ship" speed="3.65" length="1.44" shape="4873.03,10684.30 4871.71,10684.88"/>
    </edge>
    <edge id=":10081671362_9" function="internal">
        <lane id=":10081671362_9_0" index="0" disallow="tram rail_urban rail rail_electric rail_fast ship" speed="9.09" length="11.05" shape="4870.53,10687.03 4867.70,10688.46 4864.11,10688.81 4859.91,10688.01"/>
    </edge>
    <edge id=":10081671362_10" function="internal">
        <lane id=":10081671362_10_0" index="0" disallow="tram rail_urban rail rail_electric rail_fast ship" speed="3.65" length="3.23" shape="4871.71,10684.88 4870.82,10684.79 4870.36,10684.03 4870.33,10682.59"/>
    </edge>
    <edge id=":10081671362_3" function="internal">
        <lane id=":10081671362_3_0" index="0" disallow="tram rail_urban rail rail_electric rail_fast ship" speed="7.77" length="10.56" shape="4860.85,10684.95 4863.95,10685.57 4866.56,10685.38 4868.69,10684.38 4870.33,10682.59"/>
    </edge>
    <edge id=":10081671362_4" function="internal">
        <lane id=":10081671362_4_0" index="0" disallow="tram rail_urban rail rail_electric rail_fast ship" speed="7.60" length="15.34" shape="4860.85,10684.95 4864.82,10686.81 4866.86,10689.38 4866.98,10692.67 4865.18,10696.66"/>
    </edge>
    <edge id=":10081671362_5" function="internal">
        <lane id=":10081671362_5_0" index="0" disallow="tram rail_urban rail rail_electric rail_fast ship" speed="3.65" length="4.67" shape="4860.85,10684.95 4861.76,10686.07 4861.91,10686.95 4861.30,10687.60 4859.91,10688.01"/>
    </edge>
    <edge id=":10081671362_6" function="internal">
        <lane id=":10081671362_6_0" index="0" disallow="tram rail_urban rail rail_electric rail_fast ship" speed="6.00" length="9.08" shape="4862.48,10694.94 4863.55,10692.58 4863.47,10690.64 4862.26,10689.11 4859.91,10688.01"/>
    </edge>
    <edge id=":10081671362_7" function="internal">
        <lane id=":10081671362_7_0" index="0" disallow="tram rail_urban rail rail_electric rail_fast ship" speed="13.89" length="14.64" shape="4862.48,10694.94 4870.33,10682.59"/>
    </edge>
    <edge id=":10081671362_8" function="internal">
        <lane id=":10081671362_8_0" index="0" disallow="tram rail_urban rail rail_electric rail_fast ship" speed="3.65" length="1.44" shape="4862.48,10694.94 4863.80,10694.36"/>
    </edge>
    <edge id=":10081671362_11" function="internal">
        <lane id=":10081671362_11_0" index="0" disallow="tram rail_urban rail rail_electric rail_fast ship" speed="3.65" length="3.23" shape="4863.80,10694.36 4864.69,10694.45 4865.15,10695.22 4865.18,10696.66"/>
    </edge>
    <edge id=":10095107480_0" function="internal">
        <lane id=":10095107480_0_0" index="0" disallow="pedestrian bicycle tram rail_urban rail rail_electric rail_fast ship" speed="13.89" length="7.96" shape="4042.59,10664.68 4034.66,10663.96"/>
    </edge>
    <edge id=":10095107480_1" function="internal">
        <lane id=":10095107480_1_0" index="0" disallow="pedestrian bicycle tram rail_urban rail rail_electric rail_fast ship" speed="7.76" length="7.35" shape="4040.64,10660.18 4039.15,10661.90 4037.65,10663.10 4036.16,10663.79 4034.66,10663.96"/>
    </edge>
    <edge id=":10095126151_0" function="internal">
        <lane id=":10095126151_0_0" index="0" disallow="tram rail_urban rail rail_electric rail_fast ship" speed="3.65" length="4.67" shape="4033.83,10488.90 4034.14,10487.49 4034.74,10486.83 4035.63,10486.91 4036.81,10487.74"/>
    </edge>
    <edge id=":10097182475_0" function="internal">
        <lane id=":10097182475_0_0" index="0" disallow="pedestrian bicycle tram rail_urban rail rail_electric rail_fast ship" speed="16.67" length="20.61" shape="4486.89,10744.41 4506.44,10750.93"/>
        <lane id=":10097182475_0_1" index="1" disallow="pedestrian bicycle tram rail_urban rail rail_electric rail_fast ship" speed="16.67" length="20.61" shape="4485.88,10747.45 4505.42,10753.97"/>
        <lane id=":10097182475_0_2" index="2" disallow="pedestrian bicycle tram rail_urban rail rail_electric rail_fast ship" speed="16.67" length="20.61" shape="4484.86,10750.48 4504.41,10757.01"/>
    </edge>
    <edge id=":10097182475_3" function="internal">
        <lane id=":10097182475_3_0" index="0" disallow="pedestrian bicycle tram rail_urban rail rail_electric rail_fast ship" speed="19.44" length="20.00" shape="4484.79,10753.84 4490.66,10754.67 4495.01,10753.81 4499.41,10753.00 4505.42,10753.97"/>
        <lane id=":10097182475_3_1" index="1" disallow="pedestrian bicycle tram rail_urban rail rail_electric rail_fast ship" speed="19.44" length="20.00" shape="4485.67,10757.48 4491.12,10758.18 4495.06,10757.19 4498.99,10756.23 4504.41,10757.01"/>
    </edge>
    <edge id=":10130362977_0" function="internal">
        <lane id=":10130362977_0_0" index="0" allow="pedestrian delivery bicycle" speed="5.56" length="9.29" shape="4565.58,10860.63 4560.61,10868.48"/>
    </edge>
    <edge id=":10130362977_1" function="internal">
        <lane id=":10130362977_1_0" index="0" allow="pedestrian delivery bicycle" speed="5.56" length="10.12" shape="4565.58,10860.63 4563.79,10862.69 4561.73,10863.70 4559.42,10863.66 4556.86,10862.56"/>
    </edge>
    <edge id=":10130362977_2" function="internal">
        <lane id=":10130362977_2_0" index="0" allow="pedestrian delivery bicycle" speed="3.65" length="4.67" shape="4565.58,10860.63 4564.26,10861.21 4563.37,10861.11 4562.91,10860.34 4562.89,10858.90"/>
    </edge>
    <edge id=":10130362977_3" function="internal">
        <lane id=":10130362977_3_0" index="0" allow="pedestrian delivery bicycle" speed="5.12" length="5.08" shape="4558.50,10859.82 4559.80,10860.38 4560.97,10860.41 4562.00,10859.92 4562.89,10858.90"/>
    </edge>
    <edge id=":10130362977_4" function="internal">
        <lane id=":10130362977_4_0" index="0" allow="pedestrian delivery bicycle" speed="5.56" length="10.21" shape="4558.50,10859.82 4560.69,10861.60 4561.77,10863.63 4561.75,10865.93 4560.61,10868.48"/>
    </edge>
    <edge id=":10130362977_5" function="internal">
        <lane id=":10130362977_5_0" index="0" allow="pedestrian delivery bicycle" speed="3.65" length="4.67" shape="4558.50,10859.82 4559.12,10861.13 4559.05,10862.02 4558.30,10862.50 4556.86,10862.56"/>
    </edge>
    <edge id=":10130362977_6" function="internal">
        <lane id=":10130362977_6_0" index="0" allow="pedestrian delivery bicycle" speed="5.01" length="5.01" shape="4557.88,10866.81 4558.44,10865.56 4558.45,10864.43 4557.93,10863.43 4556.86,10862.56"/>
    </edge>
    <edge id=":10130362977_7" function="internal">
        <lane id=":10130362977_7_0" index="0" allow="pedestrian delivery bicycle" speed="5.56" length="9.36" shape="4557.88,10866.81 4562.89,10858.90"/>
    </edge>
    <edge id=":10130362977_8" function="internal">
        <lane id=":10130362977_8_0" index="0" allow="pedestrian delivery bicycle" speed="3.65" length="4.67" shape="4557.88,10866.81 4559.19,10866.21 4560.08,10866.28 4560.56,10867.04 4560.61,10868.48"/>
    </edge>
    <edge id=":10130362980_0" function="internal">
        <lane id=":10130362980_0_0" index="0" allow="pedestrian delivery bicycle" speed="5.56" length="7.20" shape="4574.91,10846.92 4573.51,10848.54 4572.62,10849.70 4571.82,10850.93 4570.67,10852.73"/>
    </edge>
    <edge id=":10130362980_1" function="internal">
        <lane id=":10130362980_1_0" index="0" allow="pedestrian delivery bicycle" speed="5.56" length="8.61" shape="4574.91,10846.92 4573.36,10848.10 4571.55,10848.45 4569.46,10847.99 4567.10,10846.71"/>
    </edge>
    <edge id=":10130362980_2" function="internal">
        <lane id=":10130362980_2_0" index="0" allow="pedestrian delivery bicycle" speed="3.73" length="4.33" shape="4574.91,10846.92 4573.57,10846.98 4572.83,10846.60 4572.70,10845.78 4573.16,10844.53"/>
    </edge>
    <edge id=":10130362980_3" function="internal">
        <lane id=":10130362980_3_0" index="0" allow="pedestrian delivery bicycle" speed="5.56" length="4.51" shape="4568.89,10844.06 4569.99,10844.65 4571.07,10844.92 4572.12,10844.88 4573.16,10844.53"/>
    </edge>
    <edge id=":10130362980_4" function="internal">
        <lane id=":10130362980_4_0" index="0" allow="pedestrian delivery bicycle" speed="5.56" length="10.05" shape="4568.89,10844.06 4570.93,10845.90 4571.90,10847.96 4571.81,10850.24 4570.67,10852.73"/>
    </edge>
    <edge id=":10130362980_5" function="internal">
        <lane id=":10130362980_5_0" index="0" allow="pedestrian delivery bicycle" speed="3.65" length="4.67" shape="4568.89,10844.06 4569.44,10845.39 4569.32,10846.28 4568.54,10846.72 4567.10,10846.71"/>
    </edge>
    <edge id=":10130362980_6" function="internal">
        <lane id=":10130362980_6_0" index="0" allow="pedestrian delivery bicycle" speed="5.07" length="4.97" shape="4567.98,10851.00 4568.54,10849.77 4568.59,10848.64 4568.11,10847.62 4567.10,10846.71"/>
    </edge>
    <edge id=":10130362980_7" function="internal">
        <lane id=":10130362980_7_0" index="0" allow="pedestrian delivery bicycle" speed="5.56" length="8.50" shape="4567.98,10851.00 4569.21,10848.78 4570.02,10847.15 4571.10,10845.83 4573.16,10844.53"/>
    </edge>
    <edge id=":10130362980_8" function="internal">
        <lane id=":10130362980_8_0" index="0" allow="pedestrian delivery bicycle" speed="3.65" length="4.67" shape="4567.98,10851.00 4569.30,10850.42 4570.19,10850.52 4570.65,10851.29 4570.67,10852.73"/>
    </edge>
    <edge id=":10153741988_0" function="internal">
        <lane id=":10153741988_0_0" index="0" disallow="tram rail_urban rail rail_electric rail_fast ship" speed="6.69" length="9.27" shape="4135.37,11009.18 4132.89,11008.43 4130.77,11008.60 4128.99,11009.68 4127.55,11011.68"/>
    </edge>
    <edge id=":10153741988_1" function="internal">
        <lane id=":10153741988_1_0" index="0" disallow="tram rail_urban rail rail_electric rail_fast ship" speed="7.92" length="14.37" shape="4135.37,11009.18 4132.03,11007.04 4130.24,11004.36 4129.99,11001.15 4131.27,10997.40"/>
    </edge>
    <edge id=":10153741988_2" function="internal">
        <lane id=":10153741988_2_0" index="0" disallow="tram rail_urban rail rail_electric rail_fast ship" speed="3.65" length="4.67" shape="4135.37,11009.18 4134.61,11007.95 4134.58,11007.06 4135.27,11006.50 4136.70,11006.27"/>
    </edge>
    <edge id=":10153741988_3" function="internal">
        <lane id=":10153741988_3_0" index="0" disallow="tram rail_urban rail rail_electric rail_fast ship" speed="6.41" length="9.04" shape="4134.12,10998.86 4133.31,11001.22 4133.47,11003.24 4134.60,11004.92 4136.70,11006.27"/>
    </edge>
    <edge id=":10153741988_4" function="internal">
        <lane id=":10153741988_4_0" index="0" disallow="tram rail_urban rail rail_electric rail_fast ship" speed="22.22" length="14.41" shape="4134.12,10998.86 4127.55,11011.68"/>
    </edge>
    <edge id=":10153741988_5" function="internal">
        <lane id=":10153741988_5_0" index="0" disallow="tram rail_urban rail rail_electric rail_fast ship" speed="3.65" length="1.44" shape="4134.12,10998.86 4132.86,10999.57"/>
    </edge>
    <edge id=":10153741988_9" function="internal">
        <lane id=":10153741988_9_0" index="0" disallow="tram rail_urban rail rail_electric rail_fast ship" speed="3.65" length="3.23" shape="4132.86,10999.57 4131.97,10999.56 4131.44,10998.84 4131.27,10997.40"/>
    </edge>
    <edge id=":10153741988_6" function="internal">
        <lane id=":10153741988_6_0" index="0" disallow="tram rail_urban rail rail_electric rail_fast ship" speed="22.22" length="14.40" shape="4124.70,11010.22 4131.27,10997.40"/>
    </edge>
    <edge id=":10153741988_7" function="internal">
        <lane id=":10153741988_7_0" index="0" disallow="tram rail_urban rail rail_electric rail_fast ship" speed="8.15" length="3.99" shape="4124.70,11010.22 4126.92,11007.11 4127.07,11007.02"/>
    </edge>
    <edge id=":10153741988_8" function="internal">
        <lane id=":10153741988_8_0" index="0" disallow="tram rail_urban rail rail_electric rail_fast ship" speed="3.65" length="1.44" shape="4124.70,11010.22 4125.96,11009.52"/>
    </edge>
    <edge id=":10153741988_10" function="internal">
        <lane id=":10153741988_10_0" index="0" disallow="tram rail_urban rail rail_electric rail_fast ship" speed="8.15" length="10.27" shape="4127.07,11007.02 4129.66,11005.41 4132.92,11005.13 4136.70,11006.27"/>
    </edge>
    <edge id=":10153741988_11" function="internal">
        <lane id=":10153741988_11_0" index="0" disallow="tram rail_urban rail rail_electric rail_fast ship" speed="3.65" length="3.23" shape="4125.96,11009.52 4126.86,11009.53 4127.39,11010.25 4127.55,11011.68"/>
    </edge>
    <edge id=":10153741989_0" function="internal">
        <lane id=":10153741989_0_0" index="0" disallow="tram rail_urban rail rail_electric rail_fast ship" speed="3.65" length="4.67" shape="4168.21,11020.65 4168.97,11021.87 4169.00,11022.77 4168.30,11023.33 4166.88,11023.56"/>
    </edge>
    <edge id=":10153741990_0" function="internal">
        <lane id=":10153741990_0_0" index="0" disallow="tram rail_urban rail rail_electric rail_fast ship" speed="3.65" length="4.67" shape="4089.02,10985.14 4089.36,10983.74 4089.97,10983.09 4090.86,10983.19 4092.03,10984.04"/>
    </edge>
    <edge id=":10153741991_0" function="internal">
        <lane id=":10153741991_0_0" index="0" disallow="tram rail_urban rail rail_electric rail_fast ship" speed="6.93" length="9.57" shape="4149.43,10979.81 4146.72,10979.55 4144.53,10980.10 4142.87,10981.46 4141.75,10983.64"/>
    </edge>
    <edge id=":10153741991_1" function="internal">
        <lane id=":10153741991_1_0" index="0" disallow="tram rail_urban rail rail_electric rail_fast ship" speed="7.83" length="14.60" shape="4149.43,10979.81 4145.64,10978.37 4143.35,10976.07 4142.56,10972.93 4143.29,10968.94"/>
    </edge>
    <edge id=":10153741991_2" function="internal">
        <lane id=":10153741991_2_0" index="0" disallow="tram rail_urban rail rail_electric rail_fast ship" speed="3.65" length="4.67" shape="4149.43,10979.81 4148.43,10978.77 4148.22,10977.90 4148.78,10977.20 4150.13,10976.68"/>
    </edge>
    <edge id=":10153741991_3" function="internal">
        <lane id=":10153741991_3_0" index="0" disallow="tram rail_urban rail rail_electric rail_fast ship" speed="6.30" length="9.04" shape="4146.32,10969.95 4145.87,10972.42 4146.36,10974.37 4147.78,10975.79 4150.13,10976.68"/>
    </edge>
    <edge id=":10153741991_4" function="internal">
        <lane id=":10153741991_4_0" index="0" disallow="tram rail_urban rail rail_electric rail_fast ship" speed="22.22" length="14.43" shape="4146.32,10969.95 4141.75,10983.64"/>
    </edge>
    <edge id=":10153741991_5" function="internal">
        <lane id=":10153741991_5_0" index="0" disallow="tram rail_urban rail rail_electric rail_fast ship" speed="3.65" length="1.44" shape="4146.32,10969.95 4145.18,10970.84"/>
    </edge>
    <edge id=":10153741991_9" function="internal">
        <lane id=":10153741991_9_0" index="0" disallow="tram rail_urban rail rail_electric rail_fast ship" speed="3.65" length="3.23" shape="4145.18,10970.84 4144.30,10970.96 4143.66,10970.33 4143.29,10968.94"/>
    </edge>
    <edge id=":10153741991_6" function="internal">
        <lane id=":10153741991_6_0" index="0" disallow="tram rail_urban rail rail_electric rail_fast ship" speed="22.22" length="14.43" shape="4138.71,10982.62 4143.29,10968.94"/>
    </edge>
    <edge id=":10153741991_7" function="internal">
        <lane id=":10153741991_7_0" index="0" disallow="tram rail_urban rail rail_electric rail_fast ship" speed="8.36" length="3.90" shape="4138.71,10982.62 4140.42,10979.29 4140.54,10979.18"/>
    </edge>
    <edge id=":10153741991_8" function="internal">
        <lane id=":10153741991_8_0" index="0" disallow="tram rail_urban rail rail_electric rail_fast ship" speed="3.65" length="1.44" shape="4138.71,10982.62 4139.85,10981.74"/>
    </edge>
    <edge id=":10153741991_10" function="internal">
        <lane id=":10153741991_10_0" index="0" disallow="tram rail_urban rail rail_electric rail_fast ship" speed="8.36" length="10.45" shape="4140.54,10979.18 4142.89,10977.19 4146.12,10976.32 4150.13,10976.68"/>
    </edge>
    <edge id=":10153741991_11" function="internal">
        <lane id=":10153741991_11_0" index="0" disallow="tram rail_urban rail rail_electric rail_fast ship" speed="3.65" length="3.23" shape="4139.85,10981.74 4140.74,10981.61 4141.37,10982.25 4141.75,10983.64"/>
    </edge>
    <edge id=":10153741992_0" function="internal">
        <lane id=":10153741992_0_0" index="0" disallow="tram rail_urban rail rail_electric rail_fast ship" speed="3.65" length="4.67" shape="4177.43,10982.79 4178.43,10983.83 4178.65,10984.70 4178.08,10985.39 4176.74,10985.91"/>
    </edge>
    <edge id=":10153960137_0" function="internal">
        <lane id=":10153960137_0_0" index="0" disallow="pedestrian bicycle tram rail_urban rail rail_electric rail_fast ship" speed="16.67" length="0.10" shape="4701.13,10806.68 4701.13,10806.68"/>
        <lane id=":10153960137_0_1" index="1" disallow="pedestrian bicycle tram rail_urban rail rail_electric rail_fast ship" speed="16.67" length="0.10" shape="4701.84,10803.56 4701.84,10803.56"/>
        <lane id=":10153960137_0_2" index="2" disallow="pedestrian bicycle tram rail_urban rail rail_electric rail_fast ship" speed="16.67" length="0.10" shape="4702.56,10800.44 4702.56,10800.44"/>
    </edge>
    <edge id=":10282769905_0" function="internal">
        <lane id=":10282769905_0_0" index="0" allow="delivery" speed="13.89" length="9.60" shape="4618.35,10890.97 4610.28,10885.77"/>
    </edge>
    <edge id=":10282769905_1" function="internal">
        <lane id=":10282769905_1_0" index="0" allow="delivery" speed="7.44" length="11.82" shape="4618.35,10890.97 4616.59,10889.21 4615.97,10886.86 4616.50,10883.92 4618.17,10880.38"/>
    </edge>
    <edge id=":10282769905_2" function="internal">
        <lane id=":10282769905_2_0" index="0" allow="pedestrian delivery bicycle" speed="3.65" length="4.67" shape="4618.35,10890.97 4617.76,10889.66 4617.85,10888.77 4618.61,10888.30 4620.05,10888.26"/>
    </edge>
    <edge id=":10282769905_3" function="internal">
        <lane id=":10282769905_3_0" index="0" disallow="pedestrian bicycle tram rail_urban rail rail_electric rail_fast ship" speed="5.92" length="7.65" shape="4612.06,10883.11 4613.66,10883.75 4615.21,10883.51 4616.71,10882.39 4618.17,10880.38"/>
    </edge>
    <edge id=":10282769905_4" function="internal">
        <lane id=":10282769905_4_0" index="0" allow="bus delivery" speed="13.89" length="9.51" shape="4612.06,10883.11 4620.05,10888.26"/>
    </edge>
    <edge id=":10282769905_5" function="internal">
        <lane id=":10282769905_5_0" index="0" disallow="pedestrian bicycle tram rail_urban rail rail_electric rail_fast ship" speed="3.65" length="1.44" shape="4612.06,10883.11 4612.61,10884.44"/>
    </edge>
    <edge id=":10282769905_9" function="internal">
        <lane id=":10282769905_9_0" index="0" disallow="pedestrian bicycle tram rail_urban rail rail_electric rail_fast ship" speed="3.65" length="3.23" shape="4612.61,10884.44 4612.50,10885.33 4611.72,10885.77 4610.28,10885.77"/>
    </edge>
    <edge id=":10282769905_6" function="internal">
        <lane id=":10282769905_6_0" index="0" disallow="pedestrian bicycle tram rail_urban rail rail_electric rail_fast ship" speed="6.20" length="7.87" shape="4610.65,10892.77 4611.73,10890.54 4612.03,10888.63 4611.55,10887.04 4610.28,10885.77"/>
    </edge>
    <edge id=":10282769905_7" function="internal">
        <lane id=":10282769905_7_0" index="0" disallow="pedestrian bicycle tram rail_urban rail rail_electric rail_fast ship" speed="22.22" length="14.49" shape="4610.65,10892.77 4618.17,10880.38"/>
    </edge>
    <edge id=":10282769905_8" function="internal">
        <lane id=":10282769905_8_0" index="0" allow="bus delivery" speed="7.31" length="7.49" shape="4610.65,10892.77 4612.97,10889.67 4615.31,10887.89 4615.98,10887.76"/>
    </edge>
    <edge id=":10282769905_10" function="internal">
        <lane id=":10282769905_10_0" index="0" allow="bus delivery" speed="7.31" length="4.25" shape="4615.98,10887.76 4617.67,10887.42 4620.05,10888.26"/>
    </edge>
    <edge id=":10282769907_0" function="internal">
        <lane id=":10282769907_0_0" index="0" disallow="pedestrian bicycle tram rail_urban rail rail_electric rail_fast ship" speed="22.22" length="9.43" shape="4577.84,10931.70 4579.36,10929.36 4580.27,10927.67 4581.08,10925.93 4582.30,10923.41"/>
    </edge>
    <edge id=":10282769907_1" function="internal">
        <lane id=":10282769907_1_0" index="0" disallow="pedestrian bicycle tram rail_urban rail rail_electric rail_fast ship" speed="20.99" length="9.45" shape="4577.84,10931.70 4579.55,10929.55 4581.05,10928.36 4582.78,10927.41 4585.19,10925.96"/>
    </edge>
    <edge id=":10282796509_0" function="internal">
        <lane id=":10282796509_0_0" index="0" disallow="pedestrian bicycle tram rail_urban rail rail_electric rail_fast ship" speed="5.71" length="11.63" shape="4644.92,10800.71 4649.61,10801.99 4652.32,10802.04 4653.05,10800.88 4651.80,10798.50"/>
    </edge>
    <edge id=":10282796509_1" function="internal">
        <lane id=":10282796509_1_0" index="0" disallow="pedestrian bicycle tram rail_urban rail rail_electric rail_fast ship" speed="11.11" length="10.90" shape="4644.92,10800.71 4647.90,10801.71 4649.95,10802.36 4652.02,10802.93 4655.08,10803.66"/>
        <lane id=":10282796509_1_1" index="1" disallow="pedestrian bicycle tram rail_urban rail rail_electric rail_fast ship" speed="11.11" length="10.90" shape="4643.91,10803.74 4646.98,10804.77 4649.08,10805.45 4651.22,10806.03 4654.37,10806.78"/>
        <lane id=":10282796509_1_2" index="2" disallow="pedestrian bicycle tram rail_urban rail rail_electric rail_fast ship" speed="11.11" length="10.90" shape="4642.90,10806.78 4646.05,10807.84 4648.22,10808.53 4650.41,10809.13 4653.65,10809.89"/>
    </edge>
    <edge id=":10282796509_4" function="internal">
        <lane id=":10282796509_4_0" index="0" disallow="pedestrian bicycle tram rail_urban rail rail_electric rail_fast ship" speed="10.94" length="16.49" shape="4646.48,10814.00 4649.13,10807.65 4650.90,10802.95 4651.79,10799.90 4651.80,10798.50"/>
    </edge>
    <edge id=":10282796509_5" function="internal">
        <lane id=":10282796509_5_0" index="0" disallow="pedestrian bicycle tram rail_urban rail rail_electric rail_fast ship" speed="7.79" length="11.53" shape="4646.48,10814.00 4648.30,10810.47 4650.22,10808.08 4652.24,10806.85 4654.37,10806.78"/>