<?xml version="1.0" encoding="UTF-8"?>

<!-- generated on 2025-10-28 00:45:21.817586 by randomTrips.py UNKNOWN
<configuration>
    <net-file value="kr.net.xml"/>
    <route-file value="routes.rou.xml"/>
    <end value="100.0"/>
</configuration>
-->

<!-- generated on 2025-10-28 00:45:21 by Eclipse SUMO duarouter Version 1.18.0
<configuration xmlns:xsi="http://www.w3.org/2001/XMLSchema-instance" xsi:noNamespaceSchemaLocation="http://sumo.dlr.de/xsd/duarouterConfiguration.xsd">

    <input>
        <net-file value="kr.net.xml"/>
        <route-files value="trips.trips.xml"/>
    </input>

    <output>
        <output-file value="routes.rou.xml"/>
        <alternatives-output value="NUL"/>
    </output>

    <time>
        <begin value="0"/>
        <end value="100.0"/>
    </time>

    <report>
        <no-warnings value="true"/>
        <ignore-errors value="true"/>
        <no-step-log value="true"/>
    </report>

</configuration>
-->

<routes xmlns:xsi="http://www.w3.org/2001/XMLSchema-instance" xsi:noNamespaceSchemaLocation="http://sumo.dlr.de/xsd/routes_file.xsd">
    
    <vehicle id="0" depart="0.00">
        <route edges="27934861#3 27934861#4 27934861#5 27934864 -678335364#3 -678335364#2 -678335364#1 -678335364#0 -799578796 -799578797 -1226665350 1305577667 1110164238#0 1310034044 380980308#1 1109948890#0 1109948890#1 610101763 1167293938 654137560 230423164 1090570620#0 1090570620#1 1090570620#2 464465164#0 -256258848 -256258847 -1185209422#3 -1185209422#2"/>
    </vehicle>
    <vehicle id="1" depart="0.00">
        <route edges="491889865#3 1103401541#0 1103401541#1 464465162#1 559801783 160330784 1090570620#0 1090570620#1 1090570620#2 464465164#0 -256258848 -256258847"/>
    </vehicle>
    <vehicle id="2" depart="0.00">
        <route edges="1110164238#0 1310034044 380980308#1 1109948890#0 1109948890#1 610101763 1167293938 654137560 230423164 1090570620#0 1090570620#1 1090570620#2 464465164#0 -256258848 -256258847 -1185209422#3 -1185209422#2 -1185209422#1 -1185209422#0 -27994464#3 -27994464#2 -28103470 -27994446#2 -27994446#1 -1185467340"/>
    </vehicle>
    <vehicle id="3" depart="0.00">
        <route edges="-322022988#2 322022988#2 322022988#3 322022988#4 -799578796 -799578797 -1226665350 1305577667 1110164238#0 1310034044 380980308#1 1109948890#0 1109948890#1 610101763 1167293938 312174028 1108993651 1108993653 1351994265#0 1326496636"/>
    </vehicle>
    <vehicle id="4" depart="0.00">
        <route edges="-1185209421#2 -1185209421#1 -1185209421#0 -27994464#3 -27994464#2 -27994464#1 -27994464#0 -290639912#4"/>
    </vehicle>
    <vehicle id="5" depart="0.00">
        <route edges="27934960#0 -27934983#1 -27934983#0 -678335364#0 -799578796 -799578797 -1226665350 1305577667 1110164238#0 1310034044 380980308#1 1109948890#0 1109948890#1 610101763 1167293938 654137560 230423164 1090570620#0 1090570620#1 1090570620#2 -1321561536 -654233027 160331538#0 160331538#1"/>
    </vehicle>
    <vehicle id="6" depart="0.00">
        <route edges="-322022988#3 322022988#3 322022988#4 -799578796 -799578797 -1226665350 1305577667 1110164238#0 1310034044 380980308#1 1109948890#0 1109948890#1 610101763 1167293938 312174028 1108993651 1108993653 -886153775#1 -886153775#0 -49989519 164040895#2 164040895#3 695251943 -243553546#0 -59482082#2 59482082#2 243553546#0"/>
    </vehicle>
    <vehicle id="7" depart="0.00">
        <route edges="40696199#3 40696199#4 40696199#5 40696203#0 40696203#1 290639912#2 290639912#3 290639912#4 28120431#0 28120431#1 27994446#0 -1110221362"/>
    </vehicle>
    <vehicle id="8" depart="0.00">
        <route edges="40696199#1 -1185209421#3 -1185209421#2 -1185209421#1 -1185209421#0 -27994428#1 -27994446#4 27994446#4"/>
    </vehicle>
     <vehicle id="9" depart="0.00">
        <route edges="40696199#3 40696199#4 40696199#5 40696203#0 40696203#1 290639912#2 290639912#3 290639912#4 28120431#0 28120431#1 27994446#0 -1110221362"/>
    </vehicle>
    <vehicle id="10" depart="0.00">
        <route edges="40696199#1 -1185209421#3 -1185209421#2 -1185209421#1 -1185209421#0 -27994428#1 -27994446#4 27994446#4"/>
    </vehicle>
    <vehicle id="11" depart="0.00">
        <route edges="-694335187 40696220#1 27994446#2 27994446#3 27994446#4 -27994428#0"/>
    </vehicle>
    <vehicle id="12" depart="0.00">
        <route edges="40696199#2 -40696199#2 -1185209421#3 -1185209421#2 -1185209421#1 -1185209421#0 -27994464#3 -27994464#2 -27994464#1 -27994464#0 -310665594#1 310665594#1"/>
    </vehicle>
    <vehicle id="13" depart="0.00">
        <route edges="40696223#2 40696219#0 40696219#1 1124477399 160331538#0 160331538#1 1167293939 1167293938 654137560 230423164"/>
    </vehicle>
    <vehicle id="14" depart="0.00">
        <route edges="27994446#2 27994446#3 27994446#4 -27994428#0 1103401541#0 1103401541#1 464465162#1 559801783 464465163#0 464465163#1 27555707 380709621 1109948513 610101763 1167293938 312174028 1108993651 1108993653 -886153775#1 -886153775#0 -49989519 164040895#2 164040895#3 695251943 -243553546#0 -59482082#2 59482112#2 59482112#3 59482112#4 59482112#5 -1427484874#1 -1427484874#0"/>
    </vehicle>
    <vehicle id="15" depart="0.00">
    <route edges="-322022988#6 -322022988#5 -799578796 -799578797 -1226665350 1305577667 1110164238#0 1310034044 380980308#1 1109948890#0 1109948890#1 610101763 1167293938 312174028 1108993651 1108993653 -886153775#1 -886153775#0 -49989519 164040895#2 164040895#3 695251943 -243553546#0 -59482082#2 -59482082#1"/>
</vehicle>
<vehicle id="16" depart="0.00">
    <route edges="-256258848 -256258847 -1185209422#3 -1185209422#2 -1185209422#1 -1185209422#0 -27994428#1 -27994428#0 1103401541#0 1103401541#1 464465162#1 559801783 464465163#0 464465163#1 27555707 380709621 1109948513 610101763 1167293938 312174028 1108993651 1108993653 1351994265#0 1351994265#1 491889864#0 491889864#1 -1280500777 59482012#0 -59482012#0"/>
</vehicle>
<vehicle id="17" depart="0.00">
    <route edges="27934861#1 27934930 -678335364#1 -678335364#0 -799578796 -799578797 -1226665350 1305577667 1110164238#0 1310034044 380980308#1 1109948890#0 1109948890#1 610101763 1167293938 654137560 230423164 1090570620#0"/>
</vehicle>
<vehicle id="18" depart="0.00">
    <route edges="27934930 -678335364#1 -678335364#0 -799578796 -799578797 -1226665350 1305577667 1110164238#0 1110164238#1 370328587 1208112310#0 1208112310#1 1317811589#0 1317811589#1 377132617#3 377132617#4 245809758#0 245809758#1 245809758#2"/>
</vehicle>
<vehicle id="19" depart="0.00">
    <route edges="-27994428#1 -27994446#4 28103471 -27994464#2 -27994464#1 -27994464#0 -310665594#1 310665594#1"/>
</vehicle>
<vehicle id="20" depart="0.00">
    <route edges="-27935002#1 -27934968#1 -27934968#0 322022988#3 322022988#4 -799578796 -799578797 -1226665350 1305577667 1110164238#0 1310034044 380980308#1 1109948890#0 1109948890#1 610101763 1167293938 654137560 230423164 1090570620#0 1090570620#1 1090570620#2 464465164#0 -256258848 -256258847 -1185209422#3 -1185209422#2 -1185209422#1 -1185209422#0 -27994428#1 -27994428#0 1103401541#0"/>
</vehicle>
<vehicle id="21" depart="0.00">
    <route edges="160331539#0 -1393438377 654233027 1321561536 464465164#0 -256258848 -256258847 -1185209422#3 -1185209422#2 -1185209422#1 -1185209422#0 -27994428#1 -27994428#0 27994428#0"/>
</vehicle>
<vehicle id="22" depart="0.00">
    <route edges="40696219#0 40696219#1 1124477399 160331538#0 160331538#1 380709621 1109948513 1109948700#0 1317811589#1 377132617#3 377132617#4"/>
</vehicle>
<vehicle id="23" depart="0.00">
    <route edges="-310665594#0 290639912#1 290639912#2 290639912#3 290639912#4 27994464#0 27994464#1 27994464#2 27994464#3 1185209421#0 1185209421#1 -40696205#1 -40696205#0 688608667#0 688608667#1"/>
</vehicle>
<vehicle id="24" depart="0.00">
    <route edges="27934960#2 27934975#1 27934975#2 -678335364#2 -678335364#1 -678335364#0 -799578796 -799578797 -1226665350 1305577667 1110164238#0 1310034044 380980308#1 1109948890#0 1109948890#1 1109948700#0"/>
</vehicle>
<vehicle id="25" depart="0.00">
    <route edges="-40696204#1 40696206#0 40696206#1 40696199#3 40696199#4 40696199#5 40696203#0 40696201#1 -40696202"/>
</vehicle>
<vehicle id="26" depart="0.00">
    <route edges="160556513#0 160556513#1 377132617#0 377132617#1 377132617#2 377132617#3 377132617#4 1303068639#0 1303068639#1 -1109948513 1109948513 610101763 1167293938 654137560 230423164 1090570620#0 1090570620#1 1090570620#2 464465164#0 -256258848 -256258847 -1185209422#3 40696199#0 40696199#1 40696199#2 -40696206#1"/>
</vehicle>
<vehicle id="27" depart="0.00">
    <route edges="164040897#1 -164040895#4 -164040895#3 -164040895#2 -164040895#1 -164040895#0 -1427485004 59482034#2"/>
</vehicle>
<vehicle id="28" depart="0.00">
    <route edges="886153775#0 886153775#1 1351994265#0"/>
</vehicle>
</routes>
