<?xml version="1.0" encoding="UTF-8"?>

<!-- generated on 2025-10-28 00:45:21.817586 by randomTrips.py UNKNOWN
<configuration>
    <net-file value="kr.net.xml"/>
    <route-file value="routes.rou.xml"/>
    <end value="100.0"/>
</configuration>
-->

<!-- generated on 2025-10-28 00:45:21 by Eclipse SUMO duarouter Version 1.18.0
<configuration xmlns:xsi="http://www.w3.org/2001/XMLSchema-instance" xsi:noNamespaceSchemaLocation="http://sumo.dlr.de/xsd/duarouterConfiguration.xsd">

    <input>
        <net-file value="kr.net.xml"/>
        <route-files value="trips.trips.xml"/>
    </input>

    <output>
        <output-file value="routes.rou.xml"/>
        <alternatives-output value="NUL"/>
    </output>

    <time>
        <begin value="0"/>
        <end value="100.0"/>
    </time>

    <report>
        <no-warnings value="true"/>
        <ignore-errors value="true"/>
        <no-step-log value="true"/>
    </report>

</configuration>
-->

<routes xmlns:xsi="http://www.w3.org/2001/XMLSchema-instance" xsi:noNamespaceSchemaLocation="http://sumo.dlr.de/xsd/routes_file.xsd">
    <vehicle id="0" depart="0.00">
        <route edges="27934861#3 27934861#4 27934861#5 27934864 -678335364#3 -678335364#2 -678335364#1 -678335364#0 -799578796 -799578797 -1226665350 1305577667 1110164238#0 1310034044 380980308#1 1109948890#0 1109948890#1 610101763 1167293938 654137560 230423164 1090570620#0 1090570620#1 1090570620#2 464465164#0 -256258848 -256258847 -1185209422#3 -1185209422#2"/>
    </vehicle>
    <vehicle id="1" depart="0.00">
        <route edges="491889865#3 1103401541#0 1103401541#1 464465162#1 559801783 160330784 1090570620#0 1090570620#1 1090570620#2 464465164#0 -256258848 -256258847"/>
    </vehicle>
    <vehicle id="2" depart="0.00">
        <route edges="1110164238#0 1310034044 380980308#1 1109948890#0 1109948890#1 610101763 1167293938 654137560 230423164 1090570620#0 1090570620#1 1090570620#2 464465164#0 -256258848 -256258847 -1185209422#3 -1185209422#2 -1185209422#1 -1185209422#0 -27994464#3 -27994464#2 -28103470 -27994446#2 -27994446#1 -1185467340"/>
    </vehicle>
    <vehicle id="3" depart="0.00">
        <route edges="-322022988#2 322022988#2 322022988#3 322022988#4 -799578796 -799578797 -1226665350 1305577667 1110164238#0 1310034044 380980308#1 1109948890#0 1109948890#1 610101763 1167293938 312174028 1108993651 1108993653 1351994265#0 1326496636"/>
    </vehicle>
    <vehicle id="4" depart="0.00">
        <route edges="-1185209421#2 -1185209421#1 -1185209421#0 -27994464#3 -27994464#2 -27994464#1 -27994464#0 -290639912#4"/>
    </vehicle>
    <vehicle id="5" depart="0.00">
        <route edges="27934960#0 -27934983#1 -27934983#0 -678335364#0 -799578796 -799578797 -1226665350 1305577667 1110164238#0 1310034044 380980308#1 1109948890#0 1109948890#1 610101763 1167293938 654137560 230423164 1090570620#0 1090570620#1 1090570620#2 -1321561536 -654233027 160331538#0 160331538#1"/>
    </vehicle>
    <vehicle id="6" depart="0.00">
        <route edges="-322022988#3 322022988#3 322022988#4 -799578796 -799578797 -1226665350 1305577667 1110164238#0 1310034044 380980308#1 1109948890#0 1109948890#1 610101763 1167293938 312174028 1108993651 1108993653 -886153775#1 -886153775#0 -49989519 164040895#2 164040895#3 695251943 -243553546#0 -59482082#2 59482082#2 243553546#0"/>
    </vehicle>
    <vehicle id="7" depart="0.00">
        <route edges="40696199#3 40696199#4 40696199#5 40696203#0 40696203#1 290639912#2 290639912#3 290639912#4 28120431#0 28120431#1 27994446#0 -1110221362"/>
    </vehicle>
    <vehicle id="8" depart="0.00">
        <route edges="40696199#1 -1185209421#3 -1185209421#2 -1185209421#1 -1185209421#0 -27994428#1 -27994446#4 27994446#4"/>
    </vehicle>
</routes>
