<routes>
    <vType id="car" accel="2.6" decel="4.5" length="4" maxSpeed="10"/>
    <route id="route0" edges="edge0"/>
    <vehicle id="veh0" type="car" route="route0" depart="0"/>
</routes>