<routes>
    <vType id="car" accel="2.6" decel="4.5" sigma="0.5" length="5" maxSpeed="55"/>
    
    <route id="route1" edges="1to2"/>
    <route id="route2" edges="2to1"/>
    
    <vehicle id="0" type="car" route="route1" depart="0" color="1,0,0"/>
    <vehicle id="1" type="car" route="route2" depart="2" color="0,1,0"/>
    <vehicle id="2" type="car" route="route1" depart="4" color="0,0,1"/>
    <vehicle id="3" type="car" route="route2" depart="6" color="1,1,0"/>
    <vehicle id="4" type="car" route="route1" depart="8" color="1,0,1"/>
    <vehicle id="5" type="car" route="route2" depart="10" color="0,1,1"/>
    <vehicle id="6" type="car" route="route1" depart="12" color="0.5,0.5,0.5"/>
    <vehicle id="7" type="car" route="route2" depart="14" color="1,0.5,0"/>
    <vehicle id="8" type="car" route="route1" depart="16" color="0,0.5,1"/>
    <vehicle id="9" type="car" route="route2" depart="18" color="0.5,0,1"/>
</routes>