<?xml version="1.0" encoding="UTF-8"?>

<!-- generated on 2025-10-28 00:32:58.817417 by randomTrips.py UNKNOWN
<configuration>
    <net-file value="sikboard.net.xml"/>
    <route-file value="routes.rou.xml"/>
    <end value="100.0"/>
</configuration>
-->

<!-- generated on 2025-10-28 00:32:58 by Eclipse SUMO duarouter Version 1.18.0
<configuration xmlns:xsi="http://www.w3.org/2001/XMLSchema-instance" xsi:noNamespaceSchemaLocation="http://sumo.dlr.de/xsd/duarouterConfiguration.xsd">

    <input>
        <net-file value="sikboard.net.xml"/>
        <route-files value="trips.trips.xml"/>
    </input>

    <output>
        <output-file value="routes.rou.xml"/>
        <alternatives-output value="NUL"/>
    </output>

    <time>
        <begin value="0"/>
        <end value="100.0"/>
    </time>

    <report>
        <no-warnings value="true"/>
        <ignore-errors value="true"/>
        <no-step-log value="true"/>
    </report>

</configuration>
-->

<routes xmlns:xsi="http://www.w3.org/2001/XMLSchema-instance" xsi:noNamespaceSchemaLocation="http://sumo.dlr.de/xsd/routes_file.xsd">
    <vehicle id="0" depart="0.00">
        <route edges="243553548#3 229976708#4 229976708#5 229976708#6 229976708#7 229976708#8 229976708#9 1155963376#1 380707240 377132617#0 377132617#1 377132617#2 377132617#3 377132617#4 1303068639#0 1303068639#1 -1109948513 1109948513 610101763 1167293938 654137560 230423164 1090570620#0 1090570620#1 1090570620#2 464465164#0 -256258848 -256258847 -1185209422#3 -1185209422#2 -1185209422#1"/>
    </vehicle>
    <vehicle id="1" depart="1.00">
        <route edges="-40696204#1 40696204#1 -1185209421#2 -1185209421#1 -1185209421#0 -27994464#3 -27994464#2 -27994464#1 -27994464#0 -310665594#1"/>
    </vehicle>
    <vehicle id="3" depart="3.00">
        <route edges="49989519 886153775#0 886153775#1 1351994265#0 1351994265#1 491889864#0 491889864#1 -1280500777 59482012#0 59482012#1 -229976708#2 -229976708#1 -229976708#0"/>
    </vehicle>
    <vehicle id="4" depart="4.00">
        <route edges="1109948890#1 610101763 1167293938 654137560 230423164 1090570620#0 1090570620#1 1090570620#2 464465164#0 -256258848 -256258847 -1185209422#3 -1185209422#2 -1185209422#1 -1185209422#0 -27994464#3 -27994464#2 -28103470 -27994446#2 -27994446#1 -1185467340"/>
    </vehicle>
    <vehicle id="5" depart="5.00">
        <route edges="-28120431#0 27994464#0 27994464#1 27994464#2 27994464#3 -27994428#1 -27994428#0 1103401541#0 1103401541#1 464465162#1 559801783 464465163#0 464465163#1 27555707 380709621 1109948513 1109948700#0 1317811589#1 377132617#3 377132617#4 1303068639#0 1303068639#1"/>
    </vehicle>
    <vehicle id="6" depart="6.00">
        <route edges="-1185209421#3 -1185209421#2 -1185209421#1 -1185209421#0 -27994464#3 -27994464#2 -28103470"/>
    </vehicle>
    <vehicle id="7" depart="7.00">
        <route edges="256258848 -256258848 -256258847 -1185209422#3 -1185209422#2 -1185209422#1 -1185209422#0 -27994428#1 -27994428#0 1103401541#0 1103401541#1 464465162#1 559801783 464465163#0 464465163#1 27555707 380709621 1109948513 610101763 1167293938 312174028 1108993651 1108993653 -886153775#1 -886153775#0 -49989519 164040895#2 164040895#3 695251943 -243553546#0 -59482082#3 59482112#2 59482112#3 1422250839"/>
    </vehicle>
    <vehicle id="8" depart="8.00">
        <route edges="-28120431#1 -28120431#0 27994464#0 27994464#1 27994464#2 27994464#3 -27994428#1 -27994428#0 1103401541#0 1103401541#1 464465162#1 559801783 464465163#0 464465163#1 27555707 380709621 1109948513 610101763 1167293938 312174028 1108993651 1108993653 1351994265#0 1351994265#1 491889864#0 491889864#1 -1280500777 59482012#0 59482012#1 -229976708#2 -229976708#1 -229976708#0 229976708#0 229976708#1"/>
    </vehicle>
    <vehicle id="9" depart="9.00">
        <route edges="40696199#0 40696199#1 -1185209421#3 -1185209421#2 -1185209421#1 -1185209421#0 -27994428#1 -27994446#4 -27994446#3 -27994446#2 -27994446#1 -1110221362"/>
    </vehicle>
    <vehicle id="11" depart="11.00">
        <route edges="-678335364#3 -27934975#2 -27934975#1 -27934975#0 27934968#4 -27934968#4"/>
    </vehicle>
    <vehicle id="12" depart="12.00">
        <route edges="678335364#3 -678335364#3"/>
    </vehicle>
    <vehicle id="13" depart="13.00">
        <route edges="-229976708#1 -229976708#0 229976708#0 229976708#1 229976708#2 229976708#3 229976708#4 229976708#5 -229976708#5"/>
    </vehicle>
    <vehicle id="14" depart="14.00">
        <route edges="40696219#1 1124477399 160331538#0 160331538#1 1167293939 1167293938 312174028 1108993651 1108993653 1351994265#0 1351994265#1 491889864#0 886153774 243553548#0 243553548#1 243553548#2 243553548#3 229976708#4 229976708#5 229976708#6 229976708#7 229976708#8"/>
    </vehicle>
    <vehicle id="15" depart="15.00">
        <route edges="40696197 1185467340 -27994446#0 -28120431#1 -28120431#0 27994464#0 27994464#1"/>
    </vehicle>
    <vehicle id="16" depart="16.00">
        <route edges="1351994265#0 1351994265#1 491889864#0 886153774 243553548#0 -164040895#5 -164040895#4 695251943"/>
    </vehicle>
    <vehicle id="17" depart="17.00">
        <route edges="-799578797 -1226665350 1305577667 1110164238#0 1310034044 380980308#1 1109948890#0 1109948890#1 610101763 1167293938 312174028 1108993651 1108993653 -886153775#1 -886153775#0 -49989519 164040895#2 164040895#3 695251943 -243553546#0 -59482082#3 59482112#2 59482112#3 59482112#4 59482112#5 59482112#6 59482112#7 1427484874#0 1427484874#1"/>
    </vehicle>
    <vehicle id="18" depart="18.00">
        <route edges="40696203#1 290639912#2 290639912#3 290639912#4 27994464#0 27994464#1 27994464#2 27994464#3 -27994428#1 -27994428#0 1103401541#0 1103401541#1 464465162#1 559801783 464465163#0 464465163#1 27555707 380709621 1109948513 610101763 1167293938 312174028 1108993651 1108993653 1351994265#0 1351994265#1 491889864#0 491889864#1 -1280500777 243553545#3"/>
    </vehicle>
    <vehicle id="19" depart="19.00">
        <route edges="464465162#1 559801783 464465163#0 464465163#1 27555707 380709621 1109948513 610101763 1167293938 312174028 1108993651 1108993653 -886153775#1 -886153775#0 -49989519 164040895#2 164040895#3 164040895#4"/>
    </vehicle>
    <vehicle id="20" depart="20.00">
        <route edges="27934989 27934975#2 678335364#3 678335364#4 27934854#0 27934854#1 -128220208#2 -128220208#1 -128220131#1"/>
    </vehicle>
    <vehicle id="21" depart="21.00">
        <route edges="-290639912#4 290639912#4 27994464#0 27994464#1 27994464#2 27994464#3 -27994428#1 -27994428#0 1103401541#0 1103401541#1 464465162#1 559801783 464465163#0 464465163#1 27555707 380709621 1109948513 610101763 1167293938 312174028 1108993651 1108993653 1351994265#0 1351994265#1 491889864#0 491889864#1 -1280500777 59482012#0 59482012#1 -59482012#1"/>
    </vehicle>
    <vehicle id="23" depart="23.00">
        <route edges="-229976708#6 229976708#6 229976708#7 229976708#8 229976708#9 1155963376#1 380707240 377132617#0 377132617#1 377132617#2 377132617#3 377132617#4 1303068639#0 1303068639#1 -1109948513 1109948513 610101763 1167293938 654137560 230423164 1090570620#0 1090570620#1 1090570620#2 464465164#0 -256258848 -256258847 -1185209422#3 -1185209422#2 -1185209422#1 -1185209422#0 -27994464#3 -27994464#2 -28103470 -27994446#2 -40696220#1 -40696220#0"/>
    </vehicle>
    <vehicle id="25" depart="25.00">
        <route edges="-695251944#1 -695251944#0 164040895#3 164040895#4 164040895#5 243553548#1 243553548#2 243553548#3 229976708#4 229976708#5 229976708#6 229976708#7 229976708#8 229976708#9 1155963376#1 380707240 377132617#0 377132617#1 377132617#2 377132617#3 377132617#4 1303068639#0 1303068639#1 -1109948513 1109948513 610101763 1167293938 654137560 230423164 1090570620#0 1090570620#1 1090570620#2 464465164#0 -256258848 -256258847 -1185209422#3 -1185209422#2 -1185209422#1 -1185209422#0 -27994464#3 -27994464#2 -27994464#1 -27994464#0 28120431#0 28120431#1 -28120431#1"/>
    </vehicle>
    <vehicle id="26" depart="26.00">
        <route edges="-40696202 -40696199#4 -40696199#3 -40696199#2 -1185209421#3 -1185209421#2 -1185209421#1 -1185209421#0 -27994428#1 -27994428#0 1103401541#0 1103401541#1 464465162#1 559801783 160330784 1090570620#0 1090570620#1 1090570620#2 -1321561536 -654233027 1393438377 160331539#1 1090570628 656181226#0 656181226#1"/>
    </vehicle>
    <vehicle id="27" depart="27.00">
        <route edges="256258847 256258848 -256258848 -256258847 -1185209422#3 -1185209422#2 -1185209422#1 -1185209422#0 -27994428#1 -27994428#0 1103401541#0 1103401541#1 464465162#1 559801783 464465163#0 464465163#1 230423164"/>
    </vehicle>
    <vehicle id="28" depart="28.00">
        <route edges="-27934975#0 27934975#0 27934975#1 27934975#2 -678335364#2 -678335364#1 -678335364#0 -799578796 -799578797 -1226665350 1305577667 1110164238#0 1310034044 380980308#1 1109948890#0 1109948890#1 610101763 1167293938 654137560 230423164 1090570620#0 1090570620#1 1090570620#2 464465164#0 -256258848 -256258847 -1185209422#3 -1185209422#2 -1185209422#1 -1185209422#0 -27994464#3 -27994464#2 -27994464#1 27994464#1"/>
    </vehicle>
    <vehicle id="29" depart="29.00">
        <route edges="-27934968#3 -27934968#2 -27934968#1 -27934968#0 322022988#3 322022988#4 -799578796 -799578797 -1226665350 1305577667 1110164238#0 1310034044 380980308#1 1109948890#0 1109948890#1 610101763 1167293938 654137560 230423164 1090570620#0"/>
    </vehicle>
    <vehicle id="30" depart="30.00">
        <route edges="799578797 799578796 322022988#5 322022988#6 1208112310#1 1317811589#0 1317811589#1 377132617#3 377132617#4 245809758#0 245809758#1 245809758#2"/>
    </vehicle>
    <vehicle id="32" depart="32.00">
        <route edges="40696207 -40696199#3 -40696199#2 -1185209421#3 -1185209421#2 -1185209421#1 -1185209421#0 -27994428#1 -27994428#0 1103401541#0 1103401541#1 464465162#1 559801783 464465163#0 464465163#1 27555707 380709621 1109948513 1109948700#0 1109948700#1 377124830 370328588#0"/>
    </vehicle>
    <vehicle id="33" depart="33.00">
        <route edges="-290639912#4 290639912#4 27994464#0 27994464#1 27994464#2 27994464#3 -27994428#1 -27994428#0 1103401541#0 1103401541#1 464465162#1 559801783 464465163#0 464465163#1 27555707 380709621 1109948513 610101763 1167293938 312174028 1108993651 1108993653 1351994265#0 1351994265#1 491889864#0 886153774 243553548#0 243553548#1 243553548#2 243553548#3 229976708#4 229976708#5 229976708#6 229976708#7 229976708#8 229976708#9 1155963376#1 380707240 377132617#0 1165663724 1185468746 -1185468746"/>
    </vehicle>
    <vehicle id="34" depart="34.00">
        <route edges="-59482112#3 -59482112#2 -59482082#2 -59482082#1 -59482082#0 229976708#6 229976708#7 229976708#8 229976708#9 1155963376#1 380707240 377132617#0 377132617#1 377132617#2 377132617#3 377132617#4 1303068639#0 1303068639#1 -1109948513 1109948513 610101763 1167293938 654137560 230423164 1090570620#0 1090570620#1 1090570620#2 464465164#0 -256258848 -256258847 -1185209422#3 -1185209422#2 -1185209422#1 -1185209422#0 1185209421#0 1185209421#1 -40696205#1 -40696205#0"/>
    </vehicle>
    <vehicle id="36" depart="36.00">
        <route edges="491889864#1 -1280500777 59482012#0 59482012#1 229976708#3 229976708#4 229976708#5 59482082#0 59482082#1 59482082#2 59482112#2 59482112#3 -59482112#3"/>
    </vehicle>
    <vehicle id="37" depart="37.00">
        <route edges="27555707 380709621 1109948513 610101763 1167293938 654137560 230423164 1090570620#0 1090570620#1 1090570620#2 464465164#0 -256258848 -256258847 -1185209422#3 -1185209422#2 -1185209422#1 -1185209422#0 -27994428#1 -27994428#0 1103401541#0 1103401541#1"/>
    </vehicle>
    <vehicle id="38" depart="38.00">
        <route edges="59482034#2 164040895#1 164040895#2 164040895#3 164040895#4 164040895#5 243553548#1 243553548#2 243553548#3 229976708#4 229976708#5 229976708#6 229976708#7 229976708#8 229976708#9 1155963376#1 243897292 40696222 1208112302"/>
    </vehicle>
    <vehicle id="39" depart="39.00">
        <route edges="-40696201#1 -40696203#0 -40696199#5 -40696199#4 -40696199#3 -40696199#2"/>
    </vehicle>
    <vehicle id="40" depart="40.00">
        <route edges="160331538#1 1167293939 1167293938 654137560 230423164 1090570620#0 1090570620#1 1090570620#2 464465164#0 -256258848 -256258847 -1185209422#3 -1185209422#2 -1185209422#1 -1185209422#0 -27994464#3 -27994464#2 -27994464#1 -27994464#0 -290639912#4 -290639912#3 -290639912#2 -40696203#1"/>
    </vehicle>
    <vehicle id="41" depart="41.00">
        <route edges="164040896 -59482082#1 59482100 -229976708#4 -229976708#3 -59482012#1 59482012#1"/>
    </vehicle>
    <vehicle id="45" depart="45.00">
        <route edges="-243553546#0 -59482082#3 -59482112#1 -59482112#0 -243553548#1 243553548#1"/>
    </vehicle>
    <vehicle id="47" depart="47.00">
        <route edges="-1424147361 40696205#0 40696205#1 -1185209421#1 -1185209421#0 -27994428#1 -27994428#0 1103401541#0 1103401541#1 464465162#1 559801783 160330784 1090570620#0 1090570620#1"/>
    </vehicle>
    <vehicle id="48" depart="48.00">
        <route edges="886153775#0 886153775#1 1351994265#0 1351994265#1 491889864#0 886153774 243553548#0 243553548#1 243553548#2 243553548#3 229976708#4 229976708#5 229976708#6 229976708#7 229976708#8 229976708#9 1155963376#1 380707240 377132617#0 377132617#1 377132617#2 377132617#3 377132617#4 1303068639#0 1303068639#1 -1109948513 1109948513 610101763 1167293938 654137560 230423164 1090570620#0 1090570620#1 1090570620#2 -1321561536 -654233027 1393438377 160331539#1 1090570628 1384907601#0"/>
    </vehicle>
    <vehicle id="49" depart="49.00">
        <route edges="692909359#1 -28120431#0 27994464#0 27994464#1 27994464#2 27994464#3 -27994428#1 -27994428#0 1103401541#0 1103401541#1 464465162#1 559801783 160330784 1090570620#0 1090570620#1 1090570620#2 464465164#0"/>
    </vehicle>
    <vehicle id="50" depart="50.00">
        <route edges="-1109948513 1109948513 610101763 1167293938 654137560 230423164 1090570620#0 1090570620#1 1090570620#2 464465164#0 -256258848 -256258847 -1185209422#3 -1185209422#2 -1185209422#1 -1185209422#0 -27994464#3 -27994464#2 -27994464#1 -27994464#0 28120431#0 28120431#1 27994446#0 27994446#1"/>
    </vehicle>
    <vehicle id="51" depart="51.00">
        <route edges="27934968#0 -27934968#0 322022988#3 322022988#4 -799578796 -799578797 -1226665350 1305577667 1110164238#0 1310034044 380980308#1 1109948890#0 1109948890#1 610101763 1167293938 654137560 230423164 1090570620#0 1090570620#1 1090570620#2 -1321561536 -654233027 1393438377"/>
    </vehicle>
    <vehicle id="52" depart="52.00">
        <route edges="-40696202 -40696199#4 -40696199#3 -40696199#2 -1185209421#3 -1185209421#2 -1185209421#1 -1185209421#0 -27994428#1 -27994428#0 1103401541#0 1103401541#1 464465162#1 559801783 464465163#0 464465163#1 27555707 380709621 1109948513 1109948700#0 1317811589#1 377132617#3 377132617#4 245809758#0 245809758#1 245809758#2"/>
    </vehicle>
    <vehicle id="54" depart="54.00">
        <route edges="1185209421#3 -1185209421#3 -40696204#1 -40696204#0 -688608667#1 688608667#1"/>
    </vehicle>
    <vehicle id="55" depart="55.00">
        <route edges="491889864#1 -1280500777 59482012#0 59482012#1 229976708#3 229976708#4 229976708#5 229976708#6 229976708#7 229976708#8 229976708#9 1155963376#1 380707240 377132617#0 377132617#1 377132617#2 377132617#3 377132617#4 1303068639#0 1303068639#1 -1109948513 1109948513 610101763 1167293938 654137560 230423164 1090570620#0 1090570620#1 1090570620#2 464465164#0 -256258848 -256258847 -1185209422#3 -1185209422#2 -1185209422#1 -1185209422#0 1185209421#0 1185209421#1 1185209421#2 -40696204#1 -40696204#0"/>
    </vehicle>
    <vehicle id="57" depart="57.00">
        <route edges="59482034#1 1427485004 164040895#0 164040895#1 49989519 886153775#0 886153775#1 1351994265#0 1351994265#1 491889864#0 491889864#1"/>
    </vehicle>
    <vehicle id="58" depart="58.00">
        <route edges="-59482034#2 1427485004 164040895#0 164040895#1 164040895#2 164040895#3 164040895#4 164040895#5 243553548#1 243553548#2 243553548#3 229976708#4 229976708#5 229976708#6 229976708#7 229976708#8 229976708#9 1155963376#1 380707240 377132617#0 377132617#1 377132617#2 377132617#3 377132617#4 245809758#0 245809758#1"/>
    </vehicle>
    <vehicle id="60" depart="60.00">
        <route edges="322022988#1 322022988#2 322022988#3 322022988#4 -799578796 -799578797 -1226665350 1305577667 1110164238#0 1310034044 380980308#1 1109948890#0 1109948890#1 610101763 1167293938 654137560 230423164 1090570620#0 1090570620#1 1090570620#2 464465164#0 -256258848 -256258847 -1185209422#3 -1185209422#2 -1185209422#1 -1185209422#0 -27994428#1 -27994428#0 1301808820 1299932382 519734960 1299917512 1301808819 1416769967"/>
    </vehicle>
    <vehicle id="62" depart="62.00">
        <route edges="-1101675583 -695251940#0 377132617#4 1303068639#0 1303068639#1 -1109948513 1109948513 610101763 1167293938 654137560 230423164 1090570620#0 1090570620#1 1090570620#2 -1321561536 -654233027"/>
    </vehicle>
    <vehicle id="63" depart="63.00">
        <route edges="-1182440755 -695251944#0 164040895#3 164040895#4 164040895#5 243553548#1 243553548#2 243553548#3 229976708#4 229976708#5 229976708#6 229976708#7 229976708#8 229976708#9 1155963376#1 380707240 377132617#0 377132617#1 377132617#2 377132617#3 377132617#4 1303068639#0 1303068639#1 -1109948513 1109948513 610101763"/>
    </vehicle>
    <vehicle id="65" depart="65.00">
        <route edges="-59482100 59482082#1 59482082#2 59482112#2 59482112#3 59482112#4 59482112#5 59482112#6 59482112#7 -1427484874#1 -1427484874#0"/>
    </vehicle>
    <vehicle id="69" depart="69.00">
        <route edges="322022988#2 322022988#3 322022988#4 678335364#0 678335364#1 -27934930 -27934861#1"/>
    </vehicle>
    <vehicle id="71" depart="71.00">
        <route edges="-40696201#1 40696203#1 290639912#2 290639912#3 290639912#4 27994464#0 27994464#1 27994464#2 27994464#3 -27994428#1 -27994428#0 1103401541#0 1103401541#1 464465162#1 559801783 464465163#0 464465163#1 27555707 380709621 1109948513 610101763 1167293938 312174028 1108993651 1108993653 1351994265#0 1351994265#1 491889864#0 491889864#1 491889864#2"/>
    </vehicle>
    <vehicle id="72" depart="72.00">
        <route edges="1109948890#1 610101763 1167293938 654137560 230423164 1090570620#0 1090570620#1 1090570620#2 464465164#0 -256258848 -256258847 -1185209422#3 -1185209422#2 -1185209422#1 -1185209422#0 -27994464#3 -27994464#2 -27994464#1 -27994464#0 -290639912#4 -290639912#3 -290639912#2 -290639912#1 -290639912#0"/>
    </vehicle>
    <vehicle id="74" depart="74.00">
        <route edges="-27994446#3 27994446#3 27994446#4 -27994428#0 1103401541#0 1103401541#1 464465162#1 559801783 464465163#0 464465163#1 27555707 380709621 1109948513 610101763 1167293938 312174028 1108993651 1108993653 -886153775#1 -886153775#0 -49989519 164040895#2 164040895#3 695251943 -243553546#0 -59482082#3 59482112#2 -59482112#2"/>
    </vehicle>
    <vehicle id="76" depart="76.00">
        <route edges="1165663724 1185468746 -1185468746 -1165663724 377132617#1 377132617#2 377132617#3 377132617#4 1303068639#0 1303068639#1 1109948700#0 1317811589#1"/>
    </vehicle>
    <vehicle id="78" depart="78.00">
        <route edges="-678335364#2 -678335364#1 -678335364#0 -799578796 -799578797 -1226665350 1305577667 1110164238#0 1310034044 380980308#1 1109948890#0 1109948890#1 610101763 1167293938 312174028 1108993651 1108993653 1351994265#0 1351994265#1 491889864#0 491889864#1 -1280500777 59482012#0 59482012#1 -229976708#2 -229976708#1 -229976708#0 229976708#0 229976708#1"/>
    </vehicle>
    <vehicle id="79" depart="79.00">
        <route edges="-310665594#0"/>
    </vehicle>
    <vehicle id="80" depart="80.00">
        <route edges="-1427485004 1427485004 164040895#0 164040895#1 164040895#2 164040895#3 164040895#4 164040895#5 243553548#1 243553548#2 243553548#3"/>
    </vehicle>
    <vehicle id="81" depart="81.00">
        <route edges="-290639912#4 290639912#4 27994464#0 27994464#1 27994464#2 27994464#3 -27994428#1 -27994428#0 1103401541#0 1103401541#1 464465162#1 559801783 464465163#0 464465163#1 27555707 380709621 1109948513 610101763 1167293938 312174028 1108993651 1108993653 -886153775#1 -886153775#0 -49989519 164040895#2 164040895#3 695251943 -243553546#0 -59482082#3 -59482082#2 -59482082#1 59482082#1"/>
    </vehicle>
    <vehicle id="82" depart="82.00">
        <route edges="464465162#0 464465162#1 559801783 464465163#0 464465163#1 27555707 380709621 1109948513 610101763 1167293938 312174028 1108993651 1108993653 -886153775#1 -886153775#0 -49989519 164040895#2 164040895#3 -164040895#3"/>
    </vehicle>
    <vehicle id="83" depart="83.00">
        <route edges="-322022988#3 27934968#0 27934968#1 27934968#2 27934968#3 27934975#0 27934975#1 27934975#2 678335364#3 -27934864 27934864"/>
    </vehicle>
    <vehicle id="85" depart="85.00">
        <route edges="59482112#5 -59482112#5 -59482112#4 -59482112#3 -59482112#2 59482082#3 243553546#0 -695251943 -164040895#3 -164040895#2 -164040895#1 164040895#1"/>
    </vehicle>
    <vehicle id="86" depart="86.00">
        <route edges="1208112310#0 1208112310#1 1317811589#0 1317811589#1 377132617#3 377132617#4 245809758#0 245809758#1 245809758#2 1108993651 1108993653 1351994265#0 1351994265#1 491889864#0 886153774 243553548#0 243553548#1 243553548#2 243553548#3 229976708#4 229976708#5 229976708#6 229976708#7 229976708#8 229976708#9 1155963376#1 380707240 377132617#0"/>
    </vehicle>
    <vehicle id="87" depart="87.00">
        <route edges="40696197 1185467340 -27994446#0 -28120431#1 -28120431#0 27994464#0 -27994464#0"/>
    </vehicle>
    <vehicle id="88" depart="88.00">
        <route edges="-229976708#3 229976708#3 229976708#4 229976708#5 229976708#6 229976708#7 229976708#8 229976708#9 1155963376#1 380707240 377132617#0 377132617#1 377132617#2 377132617#3 377132617#4 1303068639#0 1303068639#1 -1109948513 1109948513 610101763 1167293938"/>
    </vehicle>
    <vehicle id="91" depart="91.00">
        <route edges="726834057 229976708#2 229976708#3 229976708#4 229976708#5 229976708#6 -229976708#6"/>
    </vehicle>
    <vehicle id="92" depart="92.00">
        <route edges="1101675583 -1101675583 -695251940#0 377132617#4 1303068639#0 1303068639#1 -1109948513 1109948513 610101763 1167293938 654137560 230423164 1090570620#0 1090570620#1 1090570620#2 464465164#0 -256258848 -256258847 -1185209422#3 -1185209422#2 -1185209422#1 -1185209422#0 1185209421#0 1185209421#1 -40696205#1 -40696205#0 688608667#0 -688608667#0"/>
    </vehicle>
    <vehicle id="93" depart="93.00">
        <route edges="464465162#1 559801783 160330784 1090570620#0 1090570620#1 1090570620#2 464465164#0 -256258848 -256258847 -1185209422#3 40696199#0 40696199#1 40696199#2 40696199#3 -40696199#3"/>
    </vehicle>
    <vehicle id="94" depart="94.00">
        <route edges="-27994428#0 27994428#0 27994428#1 1185209422#0 1185209422#1"/>
    </vehicle>
    <vehicle id="95" depart="95.00">
        <route edges="1109948890#1 610101763 1167293938 654137560 230423164 1090570620#0 1090570620#1 1090570620#2 464465164#0 -256258848 -256258847 -1185209422#3 -1185209422#2 -1185209422#1 -1185209422#0 -27994464#3 -27994464#2 -28103470 -27994446#2 -40696220#1 -40696220#0"/>
    </vehicle>
    <vehicle id="96" depart="96.00">
        <route edges="-40696199#0 -1185209422#2 -1185209422#1 -1185209422#0 -27994428#1 -27994428#0 1103401541#0 1103401541#1 464465162#1 559801783 464465163#0 464465163#1 27555707 380709621 1109948513 610101763 1167293938 312174028 1108993651 1108993653 -886153775#1 -886153775#0 -49989519 164040895#2 164040895#3 695251943 -243553546#0 -59482082#3 59482112#2 59482112#3 59482112#4 59482112#5"/>
    </vehicle>
    <vehicle id="97" depart="97.00">
        <route edges="1167293939 1167293938 654137560 230423164 1090570620#0 1090570620#1 1090570620#2 464465164#0"/>
    </vehicle>
    <vehicle id="99" depart="99.00">
        <route edges="886153775#1 1351994265#0 1351994265#1 491889864#0 886153774 243553548#0 243553548#1 243553548#2 243553548#3 229976708#4 229976708#5 229976708#6 229976708#7 229976708#8 229976708#9 1155963376#1 380707240 377132617#0 377132617#1 377132617#2 377132617#3 377132617#4 1303068639#0 1303068639#1 -1109948513 1109948513 610101763 1167293938 654137560 230423164 1090570620#0 1090570620#1 1090570620#2 464465164#0 -256258848 -256258847 -1185209422#3 40696199#0 40696199#1 40696199#2 -40696206#1 40696207"/>
    </vehicle>
</routes>
