<?xml version="1.0" encoding="UTF-8"?>

<!-- generated on 2025-10-28 00:32:58.707403 by randomTrips.py UNKNOWN
<configuration>
    <net-file value="sikboard.net.xml"/>
    <route-file value="routes.rou.xml"/>
    <end value="100.0"/>
</configuration>
-->

<routes xmlns:xsi="http://www.w3.org/2001/XMLSchema-instance" xsi:noNamespaceSchemaLocation="http://sumo.dlr.de/xsd/routes_file.xsd">
    <trip id="0" depart="0.00" from="243553548#3" to="-1185209422#1"/>
    <trip id="1" depart="1.00" from="-40696204#1" to="-310665594#1"/>
    <trip id="2" depart="2.00" from="28103471" to="27934960#2"/>
    <trip id="3" depart="3.00" from="49989519" to="-229976708#0"/>
    <trip id="4" depart="4.00" from="1109948890#1" to="-1185467340"/>
    <trip id="5" depart="5.00" from="-28120431#0" to="1303068639#1"/>
    <trip id="6" depart="6.00" from="-1185209421#3" to="-28103470"/>
    <trip id="7" depart="7.00" from="256258848" to="1422250839"/>
    <trip id="8" depart="8.00" from="-28120431#1" to="229976708#1"/>
    <trip id="9" depart="9.00" from="40696199#0" to="-1110221362"/>
    <trip id="10" depart="10.00" from="380980308#1" to="27934975#2"/>
    <trip id="11" depart="11.00" from="-678335364#3" to="-27934968#4"/>
    <trip id="12" depart="12.00" from="678335364#3" to="-678335364#3"/>
    <trip id="13" depart="13.00" from="-229976708#1" to="-229976708#5"/>
    <trip id="14" depart="14.00" from="40696219#1" to="229976708#8"/>
    <trip id="15" depart="15.00" from="40696197" to="27994464#1"/>
    <trip id="16" depart="16.00" from="1351994265#0" to="695251943"/>
    <trip id="17" depart="17.00" from="-799578797" to="1427484874#1"/>
    <trip id="18" depart="18.00" from="40696203#1" to="243553545#3"/>
    <trip id="19" depart="19.00" from="464465162#1" to="164040895#4"/>
    <trip id="20" depart="20.00" from="27934989" to="-128220131#1"/>
    <trip id="21" depart="21.00" from="-290639912#4" to="-59482012#1"/>
    <trip id="22" depart="22.00" from="-164040895#4" to="-322022988#4"/>
    <trip id="23" depart="23.00" from="-229976708#6" to="-40696220#0"/>
    <trip id="24" depart="24.00" from="243553548#2" to="-799578796"/>
    <trip id="25" depart="25.00" from="-695251944#1" to="-28120431#1"/>
    <trip id="26" depart="26.00" from="-40696202" to="656181226#1"/>
    <trip id="27" depart="27.00" from="256258847" to="230423164"/>
    <trip id="28" depart="28.00" from="-27934975#0" to="27994464#1"/>
    <trip id="29" depart="29.00" from="-27934968#3" to="1090570620#0"/>
    <trip id="30" depart="30.00" from="799578797" to="245809758#2"/>
    <trip id="31" depart="31.00" from="160330784" to="27934968#2"/>
    <trip id="32" depart="32.00" from="40696207" to="370328588#0"/>
    <trip id="33" depart="33.00" from="-290639912#4" to="-1185468746"/>
    <trip id="34" depart="34.00" from="-59482112#3" to="-40696205#0"/>
    <trip id="35" depart="35.00" from="-27994464#3" to="678335364#1"/>
    <trip id="36" depart="36.00" from="491889864#1" to="-59482112#3"/>
    <trip id="37" depart="37.00" from="27555707" to="1103401541#1"/>
    <trip id="38" depart="38.00" from="59482034#2" to="1208112302"/>
    <trip id="39" depart="39.00" from="-40696201#1" to="-40696199#2"/>
    <trip id="40" depart="40.00" from="160331538#1" to="-40696203#1"/>
    <trip id="41" depart="41.00" from="164040896" to="59482012#1"/>
    <trip id="42" depart="42.00" from="1090570628" to="-290639912#4"/>
    <trip id="43" depart="43.00" from="886153775#0" to="1310034044"/>
    <trip id="44" depart="44.00" from="-169075391#1" to="-128220131#1"/>
    <trip id="45" depart="45.00" from="-243553546#0" to="243553548#1"/>
    <trip id="46" depart="46.00" from="377132617#2" to="1124477399"/>
    <trip id="47" depart="47.00" from="-1424147361" to="1090570620#1"/>
    <trip id="48" depart="48.00" from="886153775#0" to="1384907601#0"/>
    <trip id="49" depart="49.00" from="692909359#1" to="464465164#0"/>
    <trip id="50" depart="50.00" from="-1109948513" to="27994446#1"/>
    <trip id="51" depart="51.00" from="27934968#0" to="1393438377"/>
    <trip id="52" depart="52.00" from="-40696202" to="245809758#2"/>
    <trip id="53" depart="53.00" from="-243553546#1" to="1167293940"/>
    <trip id="54" depart="54.00" from="1185209421#3" to="688608667#1"/>
    <trip id="55" depart="55.00" from="491889864#1" to="-40696204#0"/>
    <trip id="56" depart="56.00" from="1299917512" to="-27994428#1"/>
    <trip id="57" depart="57.00" from="59482034#1" to="491889864#1"/>
    <trip id="58" depart="58.00" from="-59482034#2" to="245809758#1"/>
    <trip id="59" depart="59.00" from="229976708#7" to="-27934968#3"/>
    <trip id="60" depart="60.00" from="322022988#1" to="1416769967"/>
    <trip id="61" depart="61.00" from="370328588#0" to="1384907601#0"/>
    <trip id="62" depart="62.00" from="-1101675583" to="-654233027"/>
    <trip id="63" depart="63.00" from="-1182440755" to="610101763"/>
    <trip id="64" depart="64.00" from="491889864#2" to="40696205#1"/>
    <trip id="65" depart="65.00" from="-59482100" to="-1427484874#0"/>
    <trip id="66" depart="66.00" from="491889864#2" to="678335364#3"/>
    <trip id="67" depart="67.00" from="-164040897#0" to="128220208#1"/>
    <trip id="68" depart="68.00" from="-1427484874#1" to="322022988#2"/>
    <trip id="69" depart="69.00" from="322022988#2" to="-27934861#1"/>
    <trip id="70" depart="70.00" from="1208112310#2" to="1427484874#0"/>
    <trip id="71" depart="71.00" from="-40696201#1" to="491889864#2"/>
    <trip id="72" depart="72.00" from="1109948890#1" to="-290639912#0"/>
    <trip id="73" depart="73.00" from="1384907601#0" to="27994464#1"/>
    <trip id="74" depart="74.00" from="-27994446#3" to="-59482112#2"/>
    <trip id="75" depart="75.00" from="886153774" to="27934854#1"/>
    <trip id="76" depart="76.00" from="1165663724" to="1317811589#1"/>
    <trip id="77" depart="77.00" from="-256258847" to="-322022988#0"/>
    <trip id="78" depart="78.00" from="-678335364#2" to="229976708#1"/>
    <trip id="79" depart="79.00" from="-310665594#0" to="-310665594#0"/>
    <trip id="80" depart="80.00" from="-1427485004" to="243553548#3"/>
    <trip id="81" depart="81.00" from="-290639912#4" to="59482082#1"/>
    <trip id="82" depart="82.00" from="464465162#0" to="-164040895#3"/>
    <trip id="83" depart="83.00" from="-322022988#3" to="27934864"/>
    <trip id="84" depart="84.00" from="-28103471" to="-27934861#3"/>
    <trip id="85" depart="85.00" from="59482112#5" to="164040895#1"/>
    <trip id="86" depart="86.00" from="1208112310#0" to="377132617#0"/>
    <trip id="87" depart="87.00" from="40696197" to="-27994464#0"/>
    <trip id="88" depart="88.00" from="-229976708#3" to="1167293938"/>
    <trip id="89" depart="89.00" from="1109948890#1" to="1208112310#2"/>
    <trip id="90" depart="90.00" from="27994464#2" to="27934960#1"/>
    <trip id="91" depart="91.00" from="726834057" to="-229976708#6"/>
    <trip id="92" depart="92.00" from="1101675583" to="-688608667#0"/>
    <trip id="93" depart="93.00" from="464465162#1" to="-40696199#3"/>
    <trip id="94" depart="94.00" from="-27994428#0" to="1185209422#1"/>
    <trip id="95" depart="95.00" from="1109948890#1" to="-40696220#0"/>
    <trip id="96" depart="96.00" from="-40696199#0" to="59482112#5"/>
    <trip id="97" depart="97.00" from="1167293939" to="464465164#0"/>
    <trip id="98" depart="98.00" from="1416769967" to="-128220208#1"/>
    <trip id="99" depart="99.00" from="886153775#1" to="40696207"/>
</routes>
